/*--------------------------------*- C++ -*----------------------------------*\
| =========                 |                                                 |
| \\      /  F ield         | OpenFOAM: The Open Source CFD Toolbox           |
|  \\    /   O peration     | Version:  5                                     |
|   \\  /    A nd           | Web:      www.OpenFOAM.org                      |
|    \\/     M anipulation  |                                                 |
\*---------------------------------------------------------------------------*/
FoamFile
{
    version     2.0;
    format      ascii;
    class       dictionary;
    location    "system";
    object      controlDict;
}
// * * * * * * * * * * * * * * * * * * * * * * * * * * * * * * * * * * * * * //

application     chtMultiRegionFoamExt;

startFrom       latestTime;

startTime       0.001;

stopAt          endTime;

endTime         1000;

deltaT          0.001;

writeControl    adjustableRunTime;

writeInterval   10;

purgeWrite      0;

writeFormat     ascii;

writePrecision  8;

writeCompression off;

timeFormat      general;

timePrecision   6;

runTimeModifiable yes;

maxCo           0.6;

// Maximum diffusion number
maxDi           10.0;

adjustTimeStep  yes;

functions
{
	probes1
	{
		type				probes;
		functionObjectLibs	("libsampling.so");
		writeControl		timeStep;
		region				solid;
		probeLocations
		(
			(0  0     0)
			(0 -0.008 0)
			(0  0.008 0)
		);
		fields
		(
			T	
		);

	}
}

// ************************************************************************* //
